Circuit: * C:\Users\Tyler\Documents\Projects\LiPoLogger\Simulation\VoltageSamplingCircuit\Draft2.asc

Direct Newton iteration for .op point succeeded.

Date: Sun Sep 05 13:36:26 2021
Total elapsed time: 1.435 seconds.

tnom = 27
temp = 27
method = modified trap
totiter = 200064
traniter = 200034
tranpoints = 100018
accept = 100018
rejected = 0
matrix size = 13
fillins = 0
solver = Normal
Matrix Compiler1: 496 bytes object code size  0.1/0.0/[0.0]
Matrix Compiler2: 963 bytes object code size  0.1/0.1/[0.1]

