Circuit: * C:\Users\Tyler\Documents\Projects\LiPoLogger\Simulation\VoltageSamplingCircuit\VoltSampleCell1Sim.asc

Limiting rise time of source v4 to 0.005
Limiting fall time of source v4 to 0.005
Limiting rise time of source v2 to 0.01
Limiting fall time of source v2 to 0.01
Direct Newton iteration for .op point succeeded.

Date: Sun Sep 05 10:39:48 2021
Total elapsed time: 0.101 seconds.

tnom = 27
temp = 27
method = modified trap
totiter = 6710
traniter = 6684
tranpoints = 2670
accept = 2507
rejected = 163
matrix size = 19
fillins = 0
solver = Normal
Matrix Compiler1:      47 opcodes  0.2/[0.1]/0.1
Matrix Compiler2: 1.48 KB object code size  0.1/0.2/[0.1]

